1HVB.A
  MOE2015           3D
HYDROLASE
 51 52  0  0  1  0  0  0  0  0999 V2000
   17.8970  -12.3350   41.3700 S   0  0  0  0  0  0  0  0  0  0  0  0
   17.9950  -11.3210   42.8920 C   0  0  0  0  0  0  0  0  0  0  0  0
   18.4930  -10.1010   42.6440 C   0  0  3  0  0  0  0  0  0  0  0  0
   18.4350   -9.4030   41.1210 C   0  0  0  0  0  0  0  0  0  0  0  0
   17.9700   -9.8510   40.2260 N   0  0  0  0  0  0  0  0  0  0  0  0
   17.2460  -11.0600   40.3870 C   0  0  3  0  0  0  0  0  0  0  0  0
   19.1820   -9.3650   43.7170 C   0  0  0  0  0  0  0  0  0  0  0  0
   19.0670   -8.0340   41.0060 C   0  0  0  0  0  0  0  0  0  0  0  0
   18.6500   -7.2670   40.1260 O   0  0  0  0  0  0  0  0  0  0  0  0
   20.0080   -7.6110   41.7060 O   0  5  0  0  0  0  0  0  0  0  0  0
   17.0570   -9.8910   37.2550 O   0  0  0  0  0  0  0  0  0  0  0  0
   17.9860  -12.2340   38.3730 N   0  0  0  0  0  0  0  0  0  0  0  0
   16.9050  -11.6330   38.9840 C   0  0  3  0  0  0  0  0  0  0  0  0
   16.3990  -10.3860   38.1180 C   0  0  0  0  0  0  0  0  0  0  0  0
   18.1850  -13.5840   38.0120 C   0  0  0  0  0  0  0  0  0  0  0  0
   19.1990  -14.0640   37.4660 C   0  0  0  0  0  0  0  0  0  0  0  0
   20.0580  -15.1060   38.3950 C   0  0  0  0  0  0  0  0  0  0  0  0
   19.4560  -15.4230   39.5830 C   0  0  0  0  0  0  0  0  0  0  0  0
   20.1140  -16.2850   40.4470 C   0  0  0  0  0  0  0  0  0  0  0  0
   21.3470  -16.8140   40.0880 C   0  0  0  0  0  0  0  0  0  0  0  0
   21.8990  -16.5100   38.8490 C   0  0  0  0  0  0  0  0  0  0  0  0
   21.2730  -15.5820   38.0340 C   0  0  0  0  0  0  0  0  0  0  0  0
   17.0610  -14.2810   38.3870 O   0  0  0  0  0  0  0  0  0  0  0  0
   20.4630  -10.1340   43.6180 C   0  0  0  0  0  0  0  0  0  0  0  0
   21.4010  -10.1790   44.7950 C   0  0  3  0  0  0  0  0  0  0  0  0
   22.5110  -11.0230   44.2310 C   0  0  0  0  0  0  0  0  0  0  0  0
   21.7090   -8.8170   45.2540 N   0  0  0  0  0  0  0  0  0  0  0  0
   22.4030  -12.2270   44.0350 O   0  0  0  0  0  0  0  0  0  0  0  0
   23.7110  -10.3870   43.8970 N   0  0  0  0  0  0  0  0  0  0  0  0
   22.3550   -8.6360   46.4940 C   0  0  0  0  0  0  0  0  0  0  0  0
   22.6710   -9.7720   46.8990 O   0  0  0  0  0  0  0  0  0  0  0  0
   22.3660   -7.1360   46.7360 C   0  0  0  0  0  0  0  0  0  0  0  0
   25.0260  -14.1730   39.3260 C   0  0  0  0  0  0  0  0  0  0  0  0
   24.6920  -11.1590   43.1260 C   0  0  3  0  0  0  0  0  0  0  0  0
   25.9700  -10.3140   43.1470 C   0  0  0  0  0  0  0  0  0  0  0  0
   24.1610  -11.3860   41.7440 C   0  0  0  0  0  0  0  0  0  0  0  0
   23.3930  -10.6420   41.2390 O   0  0  0  0  0  0  0  0  0  0  0  0
   24.6700  -12.5580   41.1950 N   0  0  0  0  0  0  0  0  0  0  0  0
   24.4150  -12.8410   39.7990 C   0  0  3  0  0  0  0  0  0  0  0  0
   25.1340  -11.8950   38.8670 C   0  0  0  0  0  0  0  0  0  0  0  0
   25.9750  -11.0990   39.3370 O   0  0  0  0  0  0  0  0  0  0  0  0
   24.8770  -12.0430   37.6760 O   0  5  0  0  0  0  0  0  0  0  0  0
   22.8460   -6.8110   48.1660 C   0  0  0  0  0  0  0  0  0  0  0  0
   22.7800   -5.2620   48.3460 C   0  0  3  0  0  0  0  0  0  0  0  0
   23.3930   -4.6820   47.0360 C   0  0  0  0  0  0  0  0  0  0  0  0
   23.4460   -4.7800   49.5290 N   0  0  0  0  0  0  0  0  0  0  0  0
   24.6830   -4.2580   49.7420 C   0  0  0  0  0  0  0  0  0  0  0  0
   24.4650   -5.1950   46.6300 O   0  0  0  0  0  0  0  0  0  0  0  0
   22.7480   -3.7520   46.5020 O   0  5  0  0  0  0  0  0  0  0  0  0
   24.8020   -3.0250   50.6470 C   0  0  0  0  0  0  0  0  0  0  0  0
   25.6320   -5.0180   49.8270 O   0  0  0  0  0  0  0  0  0  0  0  0
  1  2  1  0  0  0  0
  1  6  1  0  0  0  0
  2  3  1  0  0  0  0
  3  4  1  0  0  0  0
  3  7  1  0  0  0  0
  4  5  2  0  0  0  0
  4  8  1  0  0  0  0
  5  6  1  0  0  0  0
  6 13  1  0  0  0  0
  7 24  1  0  0  0  0
  8  9  2  0  0  0  0
  8 10  1  0  0  0  0
 11 14  2  0  0  0  0
 12 13  1  0  0  0  0
 12 15  1  0  0  0  0
 13 14  1  0  0  0  0
 15 16  1  0  0  0  0
 15 23  2  0  0  0  0
 16 17  1  0  0  0  0
 17 18  1  0  0  0  0
 17 22  2  0  0  0  0
 18 19  2  0  0  0  0
 19 20  1  0  0  0  0
 20 21  2  0  0  0  0
 21 22  1  0  0  0  0
 24 25  1  0  0  0  0
 25 26  1  0  0  0  0
 25 27  1  0  0  0  0
 26 28  2  0  0  0  0
 26 29  1  0  0  0  0
 27 30  1  0  0  0  0
 29 34  1  0  0  0  0
 30 31  2  0  0  0  0
 30 32  1  0  0  0  0
 32 43  1  0  0  0  0
 33 39  1  0  0  0  0
 34 35  1  0  0  0  0
 34 36  1  0  0  0  0
 36 37  2  0  0  0  0
 36 38  1  0  0  0  0
 38 39  1  0  0  0  0
 39 40  1  0  0  0  0
 40 41  2  0  0  0  0
 40 42  1  0  0  0  0
 43 44  1  0  0  0  0
 44 45  1  0  0  0  0
 44 46  1  0  0  0  0
 45 48  2  0  0  0  0
 45 49  1  0  0  0  0
 46 47  1  0  0  0  0
 47 50  1  0  0  0  0
 47 51  2  0  0  0  0
M  CHG  1  10  -1
M  CHG  1  42  -1
M  CHG  1  49  -1
M  END
$$$$
